3
Coordinates from ORCA-job input_IRC_Full E -93.234931086174
  H      -1.125835      0.212071      0.389283
  C      -0.076713      0.079725      0.124525
  N       1.046929     -0.060498     -0.160101
3
Coordinates from ORCA-job input_IRC_Full E -93.234715689525
  H      -1.125006      0.225519      0.380340
  C      -0.075845      0.053498      0.141089
  N       1.045232     -0.047720     -0.167723
3
Coordinates from ORCA-job input_IRC_Full E -93.234085328672
  H      -1.122362      0.238587      0.371055
  C      -0.075580      0.027343      0.157776
  N       1.042323     -0.034633     -0.175125
3
Coordinates from ORCA-job input_IRC_Full E -93.233075450423
  H      -1.117775      0.251195      0.361428
  C      -0.074365      0.001934      0.173658
  N       1.036521     -0.021831     -0.181379
3
Coordinates from ORCA-job input_IRC_Full E -93.231649855452
  H      -1.110894      0.263528      0.351219
  C      -0.075069     -0.023741      0.190351
  N       1.030344     -0.008490     -0.187862
3
Coordinates from ORCA-job input_IRC_Full E -93.229916218706
  H      -1.103005      0.275168      0.341120
  C      -0.073518     -0.047989      0.205389
  N       1.020905      0.004119     -0.192802
3
Coordinates from ORCA-job input_IRC_Full E -93.227758734533
  H      -1.092566      0.286574      0.330319
  C      -0.075069     -0.072823      0.221850
  N       1.012016      0.017546     -0.198462
3
Coordinates from ORCA-job input_IRC_Full E -93.225365490212
  H      -1.081956      0.297307      0.319893
  C      -0.073211     -0.095866      0.236030
  N       0.999548      0.029857     -0.202216
3
Coordinates from ORCA-job input_IRC_Full E -93.222552922065
  H      -1.068563      0.307712      0.308748
  C      -0.075426     -0.119665      0.252050
  N       0.988370      0.043251     -0.207091
3
Coordinates from ORCA-job input_IRC_Full E -93.219538130938
  H      -1.055415      0.317682      0.297965
  C      -0.073621     -0.141771      0.265638
  N       0.973417      0.055387     -0.209896
3
Coordinates from ORCA-job input_IRC_Full E -93.216159648625
  H      -1.039820      0.327109      0.286716
  C      -0.075990     -0.164388      0.280939
  N       0.960191      0.068576     -0.213948
3
Coordinates from ORCA-job input_IRC_Full E -93.212609473634
  H      -1.024568      0.336299      0.275735
  C      -0.074224     -0.185411      0.293836
  N       0.943173      0.080409     -0.215864
3
Coordinates from ORCA-job input_IRC_Full E -93.208767976946
  H      -1.007457      0.344894      0.264517
  C      -0.076536     -0.206949      0.308422
  N       0.928375      0.093353     -0.219232
3
Coordinates from ORCA-job input_IRC_Full E -93.204711358681
  H      -0.989950      0.353386      0.253233
  C      -0.075811     -0.227479      0.321351
  N       0.910142      0.105390     -0.220877
3
Coordinates from ORCA-job input_IRC_Full E -93.200488461055
  H      -0.971691      0.361417      0.241992
  C      -0.076264     -0.247703      0.334483
  N       0.892336      0.117583     -0.222769
3
Coordinates from ORCA-job input_IRC_Full E -93.196145738220
  H      -0.952974      0.369182      0.230770
  C      -0.076019     -0.267262      0.346961
  N       0.873373      0.129377     -0.224025
3
Coordinates from ORCA-job input_IRC_Full E -93.191726700195
  H      -0.933715      0.376588      0.219598
  C      -0.075943     -0.286340      0.359187
  N       0.854039      0.141049     -0.225078
3
Coordinates from ORCA-job input_IRC_Full E -93.187283809532
  H      -0.914296      0.383880      0.208445
  C      -0.075683     -0.305181      0.371198
  N       0.834360      0.152598     -0.225937
3
Coordinates from ORCA-job input_IRC_Full E -93.182887565714
  H      -0.894708      0.390909      0.197407
  C      -0.075793     -0.323825      0.383202
  N       0.814882      0.164213     -0.226902
3
Coordinates from ORCA-job input_IRC_Full E -93.178547546395
  H      -0.874728      0.398108      0.186128
  C      -0.074143     -0.341933      0.394275
  N       0.793252      0.175123     -0.226696
3
Coordinates from ORCA-job input_IRC_Full E -93.174430249522
  H      -0.854937      0.404989      0.175117
  C      -0.073521     -0.360049      0.405696
  N       0.772839      0.186358     -0.227106
3
Coordinates from ORCA-job input_IRC_Full E -93.170501348335
  H      -0.834467      0.412139      0.163707
  C      -0.070959     -0.377600      0.416107
  N       0.749807      0.196758     -0.226107
3
Coordinates from ORCA-job input_IRC_Full E -93.167000462780
  H      -0.814440      0.418787      0.152767
  C      -0.069633     -0.395002      0.426836
  N       0.728454      0.207513     -0.225896
3
Coordinates from ORCA-job input_IRC_Full E -93.164366355071
  H      -0.797953      0.423607      0.144179
  C      -0.070030     -0.409374      0.436194
  N       0.712363      0.217064     -0.226666
3
Coordinates from ORCA-job input_IRC_Full E -93.159560753036
  H      -0.762366      0.444655      0.118813
  C      -0.054535     -0.447113      0.455240
  N       0.661282      0.233755     -0.220346
3
Coordinates from ORCA-job input_IRC_Full E -93.157492617042
  H      -0.658873      0.513836      0.039916
  C      -0.051366     -0.458205      0.461303
  N       0.651117      0.238288     -0.219868
3
Coordinates from ORCA-job input_IRC_Full E -93.159255419283
  H      -0.555381      0.583016     -0.038980
  C      -0.048198     -0.469297      0.467367
  N       0.640953      0.242821     -0.219389
3
Coordinates from ORCA-job input_IRC_Full E -93.162530378344
  H      -0.524660      0.605990     -0.063965
  C      -0.030605     -0.505663      0.484854
  N       0.592639      0.256212     -0.211893
3
Coordinates from ORCA-job input_IRC_Full E -93.165941462282
  H      -0.502431      0.632527     -0.088406
  C      -0.012303     -0.541575      0.501791
  N       0.552108      0.265588     -0.204389
3
Coordinates from ORCA-job input_IRC_Full E -93.169793757655
  H      -0.493978      0.671360     -0.116159
  C       0.015690     -0.580133      0.517215
  N       0.515662      0.265312     -0.192059
3
Coordinates from ORCA-job input_IRC_Full E -93.173983097401
  H      -0.486340      0.711182     -0.144282
  C       0.044717     -0.617875      0.531799
  N       0.478997      0.263233     -0.178521
3
Coordinates from ORCA-job input_IRC_Full E -93.178458363128
  H      -0.481887      0.751844     -0.171885
  C       0.075273     -0.652245      0.543715
  N       0.443989      0.256941     -0.162834
3
Coordinates from ORCA-job input_IRC_Full E -93.183207557559
  H      -0.475471      0.791885     -0.199743
  C       0.106342     -0.685265      0.554563
  N       0.406503      0.249920     -0.145823
3
Coordinates from ORCA-job input_IRC_Full E -93.187959434411
  H      -0.469319      0.831855     -0.227468
  C       0.137840     -0.716070      0.563822
  N       0.368853      0.240755     -0.127357
3
Coordinates from ORCA-job input_IRC_Full E -93.192513587715
  H      -0.459028      0.868541     -0.254458
  C       0.169257     -0.744429      0.571546
  N       0.327144      0.232428     -0.108091
3
Coordinates from ORCA-job input_IRC_Full E -93.196696892814
  H      -0.449374      0.905317     -0.281286
  C       0.201240     -0.770124      0.577377
  N       0.285508      0.221347     -0.087094
3
Coordinates from ORCA-job input_IRC_Full E -93.200388723194
  H      -0.432106      0.934518     -0.305792
  C       0.232615     -0.790695      0.580125
  N       0.236865      0.212716     -0.065337
3
Coordinates from ORCA-job input_IRC_Full E -93.203398652314
  H      -0.419498      0.967648     -0.331270
  C       0.264120     -0.812483      0.583615
  N       0.192751      0.201375     -0.043348
3
Coordinates from ORCA-job input_IRC_Full E -93.205518174940
  H      -0.390850      0.975987     -0.346169
  C       0.291824     -0.815911      0.576569
  N       0.136399      0.196463     -0.021403
3
Coordinates from ORCA-job input_IRC_Full E -93.206007956140
  H      -0.391508      0.984028     -0.351111
  C       0.296406     -0.821428      0.578583
  N       0.132476      0.193940     -0.018475
3
Coordinates from ORCA-job input_IRC_Full E -93.206255562756
  H      -0.390663      0.987901     -0.353879
  C       0.299339     -0.822980      0.578601
  N       0.128698      0.191618     -0.015725
3
Coordinates from ORCA-job input_IRC_Full E -93.206711248824
  H      -0.386995      0.994807     -0.359534
  C       0.306361     -0.826085      0.578252
  N       0.118008      0.187817     -0.009721
3
Coordinates from ORCA-job input_IRC_Full E -93.207164718983
  H      -0.380242      0.998640     -0.364246
  C       0.313944     -0.827698      0.576759
  N       0.103671      0.185598     -0.003517
3
Coordinates from ORCA-job input_IRC_Full E -93.207561747714
  H      -0.374164      1.003445     -0.369357
  C       0.321487     -0.829460      0.575378
  N       0.090052      0.182555      0.002976
3
Coordinates from ORCA-job input_IRC_Full E -93.207901865197
  H      -0.367333      1.006633     -0.373683
  C       0.328725     -0.830713      0.573775
  N       0.075982      0.180620      0.008905
3
Coordinates from ORCA-job input_IRC_Full E -93.208194214661
  H      -0.360729      1.010471     -0.378351
  C       0.336065     -0.831721      0.571981
  N       0.062037      0.177789      0.015366
3
Coordinates from ORCA-job input_IRC_Full E -93.208428793535
  H      -0.353480      1.012781     -0.382250
  C       0.343052     -0.832084      0.569891
  N       0.047802      0.175842      0.021356
3
Coordinates from ORCA-job input_IRC_Full E -93.208609767243
  H      -0.346760      1.016338     -0.386769
  C       0.350291     -0.832891      0.567999
  N       0.033843      0.173093      0.027767
3
Coordinates from ORCA-job input_IRC_Full E -93.208724920311
  H      -0.338515      1.015847     -0.389191
  C       0.356288     -0.830766      0.564639
  N       0.019600      0.171458      0.033550
3
Coordinates from ORCA-job input_IRC_Full E -93.208742123482
  H      -0.338205      1.017367     -0.390267
  C       0.357313     -0.831437      0.564729
  N       0.018267      0.170610      0.034535
3
Coordinates from ORCA-job input_IRC_Full E -93.208748485273
  H      -0.337933      1.017600     -0.390506
  C       0.357735     -0.831762      0.564798
  N       0.017572      0.170702      0.034705
3
Coordinates from ORCA-job input_IRC_Full E -93.208758527026
  H      -0.337257      1.018097     -0.391048
  C       0.358558     -0.831995      0.564674
  N       0.016074      0.170438      0.035371
3
Coordinates from ORCA-job input_IRC_Full E -93.208777198823
  H      -0.335549      1.018685     -0.391988
  C       0.360243     -0.832120      0.564195
  N       0.012679      0.169975      0.036790
3
Coordinates from ORCA-job input_IRC_Full E -93.208793533783
  H      -0.333550      1.018902     -0.392786
  C       0.361882     -0.831752      0.563417
  N       0.009042      0.169390      0.038366
3
Coordinates from ORCA-job input_IRC_Full E -93.208805654133
  H      -0.331871      1.019625     -0.393802
  C       0.363603     -0.831900      0.562944
  N       0.005641      0.168814      0.039855
