3
Coordinates from ORCA-job input_MEP E -93.234931842405
  H      -1.115578      0.000000     -0.000000
  C      -0.025918     -0.000000      0.000000
  N       1.141496      0.000000     -0.000000
3
Coordinates from ORCA-job input_MEP E -93.193709685480
  H      -0.917096      0.155398     -0.155398
  C      -0.038029     -0.300445      0.300445
  N       0.955124      0.145047     -0.145047
3
Coordinates from ORCA-job input_MEP E -93.166774914454
  H      -0.783811      0.208024     -0.208024
  C      -0.032266     -0.398457      0.398457
  N       0.816077      0.190433     -0.190433
3
Coordinates from ORCA-job input_MEP E -93.157488172185
  H      -0.674481      0.252826     -0.252826
  C      -0.012387     -0.471416      0.471416
  N       0.686868      0.218590     -0.218590
3
Coordinates from ORCA-job input_MEP E -93.168108627705
  H      -0.590197      0.345782     -0.345782
  C       0.074608     -0.570671      0.570671
  N       0.515589      0.224889     -0.224889
3
Coordinates from ORCA-job input_MEP E -93.187581273557
  H      -0.576732      0.493014     -0.493014
  C       0.226721     -0.669131      0.669131
  N       0.350011      0.176118     -0.176118
3
Coordinates from ORCA-job input_MEP E -93.208823954532
  H      -0.455695      0.690490     -0.690490
  C       0.480105     -0.727477      0.727477
  N      -0.024410      0.036987     -0.036987
