7
Coordinates from ORCA-job input_MEP E -153.531198653803
  C      -0.736788      0.430512     -0.002644
  C       0.572853     -0.305311      0.008207
  H       0.522638     -1.132083      0.735500
  H       1.401946      0.367897      0.255116
  H       0.739668     -0.771457     -0.976645
  O      -0.869752      1.613520      0.230365
  H      -1.630566     -0.203078     -0.249899
7
Coordinates from ORCA-job input_MEP E -153.499625300158
  C      -0.730405      0.353450     -0.031261
  C       0.553541     -0.400960     -0.090426
  H       0.767955     -0.934401      0.854640
  H       1.013773      0.610730      0.186686
  H       0.742177     -1.109911     -0.942344
  O      -0.661120      1.421436      0.563242
  H      -1.685922      0.059656     -0.540537
7
Coordinates from ORCA-job input_MEP E -153.455456196737
  C      -0.693688      0.316197     -0.065476
  C       0.541231     -0.449739     -0.137096
  H       0.811710     -0.891765      0.839319
  H       0.849323      0.742247      0.303966
  H       0.715117     -1.195947     -0.961685
  O      -0.546216      1.386815      0.560767
  H      -1.677478      0.092193     -0.539794
7
Coordinates from ORCA-job input_MEP E -153.434522739250
  C      -0.663605      0.280407     -0.097089
  C       0.509098     -0.512019     -0.171236
  H       0.838551     -0.860990      0.828273
  H       0.745121      0.864476      0.389865
  H       0.695841     -1.244670     -0.974399
  O      -0.456080      1.365632      0.565600
  H      -1.668927      0.107163     -0.541014
7
Coordinates from ORCA-job input_MEP E -153.459724925124
  C      -0.638898      0.237866     -0.132023
  C       0.450278     -0.600676     -0.189654
  H       0.892647     -0.816785      0.803630
  H       0.645424      1.014784      0.485115
  H       0.668456     -1.303452     -0.987984
  O      -0.364309      1.338023      0.584665
  H      -1.653598      0.130240     -0.563748
7
Coordinates from ORCA-job input_MEP E -153.492871566343
  C      -0.602538      0.207847     -0.151662
  C       0.388696     -0.712210     -0.190646
  H       1.027265     -0.753269      0.710505
  H       0.596065      1.206282      0.645625
  H       0.568373     -1.434898     -0.987114
  O      -0.382806      1.312644      0.611248
  H      -1.595055      0.173604     -0.637958
7
Coordinates from ORCA-job input_MEP E -153.513745795650
  C      -0.501050      0.213661     -0.179960
  C       0.407221     -0.768596     -0.203844
  H       1.327785     -0.725737      0.383710
  H       0.390246      1.378362      1.049322
  H       0.240597     -1.647522     -0.823532
  O      -0.441608      1.372917      0.539042
  H      -1.423191      0.176916     -0.764738
