3
Coordinates from ORCA-job input_MEP E  -5.501475248750
  H      -1.113911      0.000000     -0.000000
  C      -0.026666     -0.000000      0.000000
  N       1.140576      0.000000     -0.000000
3
Coordinates from ORCA-job input_MEP E  -5.448491228820
  H      -0.876537      0.150567     -0.150566
  C      -0.052250     -0.290815      0.290813
  N       0.928787      0.140248     -0.140247
3
Coordinates from ORCA-job input_MEP E  -5.404019849310
  H      -0.741161      0.200471     -0.200470
  C      -0.058633     -0.386878      0.386876
  N       0.799794      0.186407     -0.186406
3
Coordinates from ORCA-job input_MEP E  -5.387374986350
  H      -0.634995      0.246244     -0.246242
  C      -0.045746     -0.462177      0.462174
  N       0.680741      0.215933     -0.215932
3
Coordinates from ORCA-job input_MEP E  -5.403071787470
  H      -0.549264      0.341101     -0.341098
  C       0.034186     -0.562939      0.562936
  N       0.515078      0.221839     -0.221837
3
Coordinates from ORCA-job input_MEP E  -5.436034622190
  H      -0.531046      0.489204     -0.489201
  C       0.178553     -0.659654      0.659650
  N       0.352493      0.170450     -0.170449
3
Coordinates from ORCA-job input_MEP E  -5.470605065820
  H      -0.412640      0.703137     -0.703133
  C       0.434727     -0.740773      0.740769
  N      -0.022087      0.037636     -0.037636
