7
Coordinates from ORCA-job input E -153.434523050378
  C          -0.66317307347966      0.28018194152757     -0.09615186292715
  C           0.50836971593241     -0.51247377803065     -0.16983643777511
  H           0.84043483066423     -0.85942585214089      0.82939880141872
  H           0.74498239269949      0.86474789509194      0.38839998504082
  H           0.69182799489950     -1.24585500516987     -0.97346170576772
  O          -0.45618980017626      1.36545908552930      0.56716441610144
  H          -1.66625206053970      0.10736571319260     -0.54551319609099
