7
Coordinates from ORCA-job input_MEP E -10.356706352920
  C      -0.730561      0.433082     -0.001220
  C       0.567328     -0.309239      0.006790
  H       0.513581     -1.117452      0.733930
  H       1.390526      0.356358      0.251939
  H       0.730208     -0.756745     -0.972021
  O      -0.867943      1.600455      0.226583
  H      -1.603139     -0.206458     -0.246000
7
Coordinates from ORCA-job input_MEP E -10.325360358440
  C      -0.730287      0.352949     -0.029780
  C       0.542751     -0.384957     -0.072072
  H       0.781039     -0.937292      0.829787
  H       1.046944      0.581676      0.202404
  H       0.679711     -1.075942     -0.916335
  O      -0.673544      1.420793      0.532535
  H      -1.646613      0.042773     -0.546539
7
Coordinates from ORCA-job input_MEP E -10.273103127830
  C      -0.700229      0.313877     -0.066182
  C       0.521895     -0.430405     -0.127661
  H       0.840428     -0.879144      0.803428
  H       0.891339      0.709647      0.340493
  H       0.645295     -1.175497     -0.932530
  O      -0.552087      1.382867      0.531922
  H      -1.646641      0.078654     -0.549469
7
Coordinates from ORCA-job input_MEP E -10.249259948010
  C      -0.674014      0.275098     -0.096008
  C       0.484503     -0.489546     -0.166076
  H       0.870181     -0.839296      0.786727
  H       0.793656      0.823972      0.432056
  H       0.623280     -1.226994     -0.944398
  O      -0.457215      1.364714      0.540255
  H      -1.640390      0.092052     -0.552557
7
Coordinates from ORCA-job input_MEP E -10.281473823180
  C      -0.649825      0.233606     -0.123940
  C       0.432388     -0.571426     -0.184350
  H       0.915720     -0.799877      0.761144
  H       0.676446      0.965116      0.514553
  H       0.598524     -1.280294     -0.957880
  O      -0.347883      1.339826      0.561752
  H      -1.625370      0.113049     -0.571279
7
Coordinates from ORCA-job input_MEP E -10.322171320920
  C      -0.610570      0.207326     -0.145983
  C       0.373235     -0.685532     -0.188392
  H       1.025250     -0.742030      0.672784
  H       0.614641      1.149259      0.661450
  H       0.517473     -1.401570     -0.960885
  O      -0.344137      1.315858      0.586790
  H      -1.575892      0.156689     -0.625765
7
Coordinates from ORCA-job input_MEP E -10.347576218870
  C      -0.505777      0.214142     -0.176579
  C       0.386457     -0.761334     -0.211806
  H       1.301243     -0.716451      0.358285
  H       0.424049      1.354705      1.038047
  H       0.229377     -1.636136     -0.812690
  O      -0.407015      1.355333      0.544149
  H      -1.428333      0.189740     -0.739406
