7
Coordinates from ORCA-job NEB-TS_with_guess_MEP E -153.531198642002
  C      -0.736788      0.430512     -0.002644
  C       0.572853     -0.305311      0.008207
  H       0.522638     -1.132083      0.735500
  H       1.401946      0.367897      0.255116
  H       0.739668     -0.771457     -0.976645
  O      -0.869752      1.613520      0.230365
  H      -1.630566     -0.203078     -0.249899
7
Coordinates from ORCA-job NEB-TS_with_guess_MEP E -153.498667832223
  C      -0.731577      0.353225     -0.031004
  C       0.552976     -0.402524     -0.088516
  H       0.771028     -0.930136      0.859114
  H       1.012029      0.610684      0.180478
  H       0.740352     -1.112894     -0.941359
  O      -0.661570      1.417959      0.570129
  H      -1.683237      0.063686     -0.548843
7
Coordinates from ORCA-job NEB-TS_with_guess_MEP E -153.454975004577
  C      -0.693163      0.315991     -0.065264
  C       0.541404     -0.449666     -0.134803
  H       0.809824     -0.891680      0.842437
  H       0.847731      0.740718      0.301736
  H       0.713784     -1.193411     -0.961707
  O      -0.544597      1.387517      0.560557
  H      -1.674982      0.090531     -0.542955
7
Coordinates from ORCA-job NEB-TS_with_guess_MEP E -153.434532479952
  C      -0.662337      0.278748     -0.097848
  C       0.507610     -0.514236     -0.169139
  H       0.837999     -0.859580      0.831108
  H       0.737229      0.866274      0.387924
  H       0.695913     -1.243376     -0.973992
  O      -0.449757      1.364665      0.566684
  H      -1.666658      0.107505     -0.544737
7
Coordinates from ORCA-job NEB-TS_with_guess_MEP E -153.461531763240
  C      -0.637530      0.236150     -0.132980
  C       0.445846     -0.607259     -0.187679
  H       0.900271     -0.812596      0.801799
  H       0.640723      1.023306      0.490965
  H       0.663749     -1.309309     -0.986823
  O      -0.364090      1.336721      0.586567
  H      -1.648969      0.132988     -0.571849
7
Coordinates from ORCA-job NEB-TS_with_guess_MEP E -153.493694363889
  C      -0.599421      0.210733     -0.154242
  C       0.391253     -0.709246     -0.192269
  H       1.038625     -0.745097      0.703133
  H       0.591579      1.200624      0.665010
  H       0.552681     -1.443251     -0.980756
  O      -0.385942      1.317030      0.605595
  H      -1.588776      0.169208     -0.646471
7
Coordinates from ORCA-job NEB-TS_with_guess_MEP E -153.513745681531
  C      -0.500542      0.213702     -0.180436
  C       0.407410     -0.768072     -0.203737
  H       1.326600     -0.725699      0.384895
  H       0.388291      1.376879      1.050417
  H       0.241914     -1.646091     -0.824027
  O      -0.442358      1.371842      0.539179
  H      -1.421314      0.177439     -0.766290
