7
Coordinates from ORCA-job input_MEP E -10.356706352920
  C      -0.730561      0.433082     -0.001220
  C       0.567328     -0.309239      0.006790
  H       0.513581     -1.117452      0.733930
  H       1.390526      0.356358      0.251939
  H       0.730208     -0.756745     -0.972021
  O      -0.867943      1.600455      0.226583
  H      -1.603139     -0.206458     -0.246000
7
Coordinates from ORCA-job input_MEP E -10.327915481010
  C      -0.735893      0.353107     -0.030738
  C       0.540403     -0.385191     -0.072994
  H       0.783376     -0.922494      0.835761
  H       1.061906      0.570940      0.187298
  H       0.688519     -1.085006     -0.908839
  O      -0.688287      1.412360      0.549313
  H      -1.650023      0.056285     -0.559802
7
Coordinates from ORCA-job input_MEP E -10.276223532910
  C      -0.705854      0.313594     -0.067975
  C       0.517918     -0.430900     -0.128180
  H       0.846065     -0.862879      0.805337
  H       0.903040      0.697126      0.335106
  H       0.654252     -1.184148     -0.926099
  O      -0.563394      1.375976      0.541723
  H      -1.652027      0.091231     -0.559912
7
Coordinates from ORCA-job input_MEP E -10.249396772540
  C      -0.678615      0.273896     -0.099419
  C       0.477434     -0.493705     -0.169316
  H       0.878161     -0.818557      0.785461
  H       0.801969      0.815446      0.435408
  H       0.631350     -1.239176     -0.938494
  O      -0.464790      1.356632      0.548396
  H      -1.645510      0.105464     -0.562037
7
Coordinates from ORCA-job input_MEP E -10.279782785620
  C      -0.657145      0.234111     -0.127032
  C       0.428731     -0.573426     -0.186718
  H       0.918893     -0.780915      0.759706
  H       0.684570      0.950596      0.514855
  H       0.610093     -1.287106     -0.950814
  O      -0.353442      1.331882      0.567440
  H      -1.631701      0.124859     -0.577438
7
Coordinates from ORCA-job input_MEP E -10.322002663820
  C      -0.616678      0.206123     -0.148080
  C       0.371092     -0.684976     -0.190469
  H       1.025295     -0.725831      0.670959
  H       0.615501      1.134012      0.658897
  H       0.531206     -1.404877     -0.954410
  O      -0.343923      1.308360      0.592402
  H      -1.582491      0.167189     -0.629300
7
Coordinates from ORCA-job input_MEP E -10.347576218870
  C      -0.506194      0.213172     -0.176332
  C       0.388225     -0.760125     -0.213393
  H       1.302717     -0.713825      0.357262
  H       0.420677      1.354319      1.041429
  H       0.233300     -1.634492     -0.816402
  O      -0.410220      1.353628      0.547115
  H      -1.428504      0.187325     -0.739679
