7
Coordinates from ORCA-job input_MEP E -153.531198653803
  C      -0.736788      0.430512     -0.002644
  C       0.572853     -0.305311      0.008207
  H       0.522638     -1.132083      0.735500
  H       1.401946      0.367897      0.255116
  H       0.739668     -0.771457     -0.976645
  O      -0.869752      1.613520      0.230365
  H      -1.630566     -0.203078     -0.249899
7
Coordinates from ORCA-job input_MEP E -153.498622680547
  C      -0.731516      0.353292     -0.031044
  C       0.552970     -0.402460     -0.088644
  H       0.771168     -0.930143      0.858920
  H       1.012564      0.610919      0.180936
  H       0.739815     -1.113269     -0.941347
  O      -0.661839      1.417991      0.570135
  H      -1.683162      0.063670     -0.548956
7
Coordinates from ORCA-job input_MEP E -153.454889532332
  C      -0.693138      0.316090     -0.065298
  C       0.541186     -0.449954     -0.135050
  H       0.810150     -0.891711      0.842202
  H       0.848947      0.741494      0.302467
  H       0.712988     -1.194127     -0.961816
  O      -0.545231      1.387664      0.560648
  H      -1.674902      0.090542     -0.543154
7
Coordinates from ORCA-job input_MEP E -153.434542312249
  C      -0.662280      0.278914     -0.097839
  C       0.507103     -0.515018     -0.169488
  H       0.838408     -0.859568      0.830779
  H       0.739231      0.867536      0.389033
  H       0.694984     -1.244358     -0.974300
  O      -0.450871      1.364983      0.566743
  H      -1.666576      0.107511     -0.544928
7
Coordinates from ORCA-job input_MEP E -153.461513027551
  C      -0.637500      0.236343     -0.132893
  C       0.445704     -0.607352     -0.187809
  H       0.900245     -0.812852      0.801626
  H       0.641600      1.023621      0.491242
  H       0.663071     -1.309687     -0.986930
  O      -0.364131      1.336922      0.586509
  H      -1.648989      0.133005     -0.571744
7
Coordinates from ORCA-job input_MEP E -153.493670393542
  C      -0.599406      0.210790     -0.154171
  C       0.391123     -0.709439     -0.192285
  H       1.038502     -0.745396      0.702996
  H       0.592136      1.200725      0.664907
  H       0.552227     -1.443396     -0.980806
  O      -0.385652      1.317249      0.605599
  H      -1.588930      0.169468     -0.646239
7
Coordinates from ORCA-job input_MEP E -153.513745715332
  C      -0.500526      0.213803     -0.180360
  C       0.407199     -0.768179     -0.203756
  H       1.326505     -0.725973      0.384707
  H       0.388793      1.376866      1.050248
  H       0.241392     -1.646204     -0.823953
  O      -0.441949      1.371980      0.539160
  H      -1.421413      0.177707     -0.766045
