3
Coordinates from ORCA-job input_MEP E -93.234931842405
  H      -1.115578      0.000000     -0.000000
  C      -0.025918     -0.000000      0.000000
  N       1.141496      0.000000     -0.000000
3
Coordinates from ORCA-job input_MEP E -93.193066667152
  H      -0.915615      0.156128     -0.156128
  C      -0.038056     -0.301857      0.301857
  N       0.953671      0.145729     -0.145729
3
Coordinates from ORCA-job input_MEP E -93.165784079262
  H      -0.778945      0.210060     -0.210060
  C      -0.030826     -0.401682      0.401682
  N       0.809770      0.191622     -0.191622
3
Coordinates from ORCA-job input_MEP E -93.157572965648
  H      -0.672634      0.255520     -0.255520
  C      -0.009694     -0.475018      0.475018
  N       0.682328      0.219498     -0.219498
3
Coordinates from ORCA-job input_MEP E -93.168481128046
  H      -0.588289      0.351137     -0.351137
  C       0.080602     -0.576002      0.576002
  N       0.507687      0.224865     -0.224865
3
Coordinates from ORCA-job input_MEP E -93.187719020744
  H      -0.576094      0.495006     -0.495006
  C       0.229002     -0.670522      0.670522
  N       0.347092      0.175516     -0.175516
3
Coordinates from ORCA-job input_MEP E -93.208823554365
  H      -0.453798      0.687907     -0.687907
  C       0.478106     -0.724756      0.724756
  N      -0.024308      0.036849     -0.036849
