3
Coordinates from ORCA-job input_MEP E -93.234931842405
  H      -1.115578      0.000000     -0.000000
  C      -0.025918     -0.000000      0.000000
  N       1.141496      0.000000     -0.000000
3
Coordinates from ORCA-job input_MEP E -93.193763691212
  H      -0.917863      0.155131     -0.155131
  C      -0.037977     -0.299930      0.299930
  N       0.955840      0.144799     -0.144799
3
Coordinates from ORCA-job input_MEP E -93.166987209618
  H      -0.784474      0.207760     -0.207760
  C      -0.032353     -0.398025      0.398025
  N       0.816827      0.190264     -0.190264
3
Coordinates from ORCA-job input_MEP E -93.157492938933
  H      -0.675019      0.253288     -0.253288
  C      -0.012000     -0.472031      0.472031
  N       0.687018      0.218743     -0.218743
3
Coordinates from ORCA-job input_MEP E -93.167762528503
  H      -0.590110      0.344829     -0.344829
  C       0.073376     -0.570226      0.570226
  N       0.516735      0.225397     -0.225397
3
Coordinates from ORCA-job input_MEP E -93.187195751543
  H      -0.576751      0.491902     -0.491902
  C       0.225131     -0.668662      0.668662
  N       0.351620      0.176760     -0.176760
3
Coordinates from ORCA-job input_MEP E -93.208823954532
  H      -0.455365      0.690601     -0.690601
  C       0.479757     -0.727594      0.727594
  N      -0.024392      0.036993     -0.036993
