7
Coordinates from ORCA-job input_MEP E -10.356706352920
  C      -0.730561      0.433082     -0.001220
  C       0.567328     -0.309239      0.006790
  H       0.513581     -1.117452      0.733930
  H       1.390526      0.356358      0.251939
  H       0.730208     -0.756745     -0.972021
  O      -0.867943      1.600455      0.226583
  H      -1.603139     -0.206458     -0.246000
7
Coordinates from ORCA-job input_MEP E -10.326612889440
  C      -0.735849      0.353707     -0.031392
  C       0.540199     -0.385789     -0.070544
  H       0.786247     -0.926754      0.834945
  H       1.058616      0.571290      0.186669
  H       0.687906     -1.081835     -0.907426
  O      -0.686287      1.413554      0.546721
  H      -1.650833      0.055828     -0.558972
7
Coordinates from ORCA-job input_MEP E -10.276282195070
  C      -0.705687      0.315352     -0.065015
  C       0.518514     -0.431638     -0.124200
  H       0.846206     -0.868126      0.807730
  H       0.903390      0.696720      0.329163
  H       0.653009     -1.179724     -0.927027
  O      -0.565283      1.377665      0.540002
  H      -1.650150      0.089751     -0.560653
7
Coordinates from ORCA-job input_MEP E -10.249346969720
  C      -0.678165      0.273567     -0.096435
  C       0.477321     -0.495590     -0.165485
  H       0.877895     -0.824840      0.787993
  H       0.801676      0.818928      0.430628
  H       0.630548     -1.236098     -0.940471
  O      -0.465722      1.359419      0.546157
  H      -1.643553      0.104613     -0.562387
7
Coordinates from ORCA-job input_MEP E -10.279717844730
  C      -0.655325      0.235005     -0.119913
  C       0.428303     -0.571055     -0.181512
  H       0.917285     -0.789301      0.764209
  H       0.685880      0.949657      0.505801
  H       0.610118     -1.280314     -0.952064
  O      -0.354393      1.333610      0.562888
  H      -1.631869      0.122398     -0.579409
7
Coordinates from ORCA-job input_MEP E -10.323197096640
  C      -0.616777      0.206573     -0.147100
  C       0.372704     -0.690076     -0.186769
  H       1.029990     -0.732841      0.669271
  H       0.615028      1.146904      0.659182
  H       0.521353     -1.406667     -0.952677
  O      -0.346842      1.310396      0.591930
  H      -1.575455      0.165712     -0.633837
7
Coordinates from ORCA-job input_MEP E -10.347576218870
  C      -0.505746      0.213573     -0.177107
  C       0.387083     -0.761261     -0.211345
  H       1.301341     -0.715087      0.359660
  H       0.422352      1.356109      1.038342
  H       0.231038     -1.636808     -0.812302
  O      -0.408277      1.355590      0.543610
  H      -1.427792      0.187882     -0.740858
