3
Coordinates from ORCA-job input_MEP E  -5.501475248750
  H      -1.113911      0.000000     -0.000000
  C      -0.026666     -0.000000      0.000000
  N       1.140576      0.000000     -0.000000
3
Coordinates from ORCA-job input_MEP E  -5.443256144590
  H      -0.861752      0.156542     -0.156543
  C      -0.053243     -0.302355      0.302357
  N       0.914994      0.145813     -0.145814
3
Coordinates from ORCA-job input_MEP E  -5.396653014580
  H      -0.715054      0.211438     -0.211439
  C      -0.056649     -0.406293      0.406295
  N       0.771703      0.194855     -0.194856
3
Coordinates from ORCA-job input_MEP E  -5.390184940280
  H      -0.590341      0.269602     -0.269603
  C      -0.030493     -0.494202      0.494205
  N       0.620834      0.224601     -0.224602
3
Coordinates from ORCA-job input_MEP E  -5.408049515460
  H      -0.541822      0.366886     -0.366888
  C       0.056465     -0.582493      0.582496
  N       0.485357      0.215607     -0.215608
3
Coordinates from ORCA-job input_MEP E  -5.439846426180
  H      -0.526893      0.505357     -0.505360
  C       0.191296     -0.668494      0.668498
  N       0.335597      0.163137     -0.163138
3
Coordinates from ORCA-job input_MEP E  -5.470605065820
  H      -0.410348      0.703701     -0.703705
  C       0.432313     -0.741367      0.741372
  N      -0.021964      0.037667     -0.037667
