7
Coordinates from ORCA-job input_MEP E -10.356706352920
  C      -0.730561      0.433082     -0.001220
  C       0.567328     -0.309239      0.006790
  H       0.513581     -1.117452      0.733930
  H       1.390526      0.356358      0.251939
  H       0.730208     -0.756745     -0.972021
  O      -0.867943      1.600455      0.226583
  H      -1.603139     -0.206458     -0.246000
7
Coordinates from ORCA-job input_MEP E -10.326637456330
  C      -0.735542      0.352339     -0.031146
  C       0.540418     -0.385565     -0.074530
  H       0.788016     -0.919596      0.834842
  H       1.059070      0.571782      0.190959
  H       0.685465     -1.088304     -0.908855
  O      -0.687146      1.410540      0.550258
  H      -1.650282      0.058804     -0.561528
7
Coordinates from ORCA-job input_MEP E -10.274410347900
  C      -0.705224      0.312741     -0.068912
  C       0.517009     -0.432073     -0.130693
  H       0.846491     -0.859745      0.804509
  H       0.899248      0.698967      0.338510
  H       0.653887     -1.186205     -0.926772
  O      -0.559169      1.374795      0.542933
  H      -1.652241      0.091519     -0.559574
7
Coordinates from ORCA-job input_MEP E -10.249535289500
  C      -0.677262      0.271167     -0.101259
  C       0.474514     -0.497065     -0.172252
  H       0.880583     -0.813996      0.783800
  H       0.793892      0.820711      0.441251
  H       0.630251     -1.241986     -0.939058
  O      -0.456525      1.354649      0.550203
  H      -1.645452      0.106519     -0.562685
7
Coordinates from ORCA-job input_MEP E -10.281297293170
  C      -0.655457      0.233323     -0.127013
  C       0.426700     -0.574036     -0.188276
  H       0.921006     -0.776799      0.757789
  H       0.680468      0.951661      0.518958
  H       0.608966     -1.289412     -0.951342
  O      -0.349782      1.329851      0.568510
  H      -1.631901      0.125413     -0.578626
7
Coordinates from ORCA-job input_MEP E -10.322837763090
  C      -0.615865      0.204904     -0.149056
  C       0.369067     -0.686910     -0.191495
  H       1.029601     -0.722708      0.665416
  H       0.614447      1.138214      0.665653
  H       0.529553     -1.409867     -0.953686
  O      -0.345097      1.306941      0.594274
  H      -1.581706      0.169427     -0.631105
7
Coordinates from ORCA-job input_MEP E -10.347576218870
  C      -0.506505      0.213080     -0.175999
  C       0.388607     -0.759881     -0.214146
  H       1.303556     -0.713541      0.356268
  H       0.420565      1.353947      1.042430
  H       0.233814     -1.634001     -0.817837
  O      -0.410757      1.353208      0.548370
  H      -1.429280      0.187187     -0.739085
