6
Coordinates from ORCA-job input E -3073.197345859316
  C          -4.34620209191350      1.27271104295804     -0.02270028374648
  Br         -1.98899299776971      1.23414508890729     -0.34984309322062
  H          -4.34480867848681      2.15880994597283      0.61281637860014
  H          -4.39967950958750      0.28684257928362      0.44022616044976
  H          -4.59249290202166      1.37737483374892     -1.07979244162770
  Cl         -6.79010179372082      1.31354504882929      0.31585819004489
