6
Coordinates from ORCA-job opt_TS E -3073.197345839651
  C          -4.34604689578973      1.27271190850149     -0.02272654406405
  Br         -1.98931894581063      1.23414627317168     -0.34978853791569
  H          -4.34483569546503      2.15879490214268      0.61280029336720
  H          -4.39972382890789      0.28687200201964      0.44021613201556
  H          -4.59251282608112      1.37737756086881     -1.07977079703382
  Cl         -6.78983978129359      1.31352589295370      0.31583436407481
