3
Coordinates from ORCA-job input_MEP E -93.234931842405
  H      -1.115578      0.000000     -0.000000
  C      -0.025918     -0.000000      0.000000
  N       1.141496      0.000000     -0.000000
3
Coordinates from ORCA-job input_MEP E -93.193561143932
  H      -0.917096      0.155398     -0.155398
  C      -0.038029     -0.300445      0.300445
  N       0.955124      0.145047     -0.145047
3
Coordinates from ORCA-job input_MEP E -93.166914668434
  H      -0.783806      0.207650     -0.207650
  C      -0.032857     -0.398130      0.398130
  N       0.816664      0.190480     -0.190480
3
Coordinates from ORCA-job input_MEP E -93.159178005995
  H      -0.721639      0.232795     -0.232795
  C      -0.023592     -0.440338      0.440338
  N       0.745231      0.207544     -0.207544
3
Coordinates from ORCA-job input_MEP E -93.157496674268
  H      -0.676064      0.253248     -0.253248
  C      -0.012364     -0.471397      0.471397
  N       0.688428      0.218149     -0.218149
3
Coordinates from ORCA-job input_MEP E -93.160285514359
  H      -0.623714      0.285931     -0.285931
  C       0.012437     -0.513252      0.513252
  N       0.611277      0.227322     -0.227322
3
Coordinates from ORCA-job input_MEP E -93.167860833205
  H      -0.585633      0.346626     -0.346626
  C       0.070346     -0.570536      0.570536
  N       0.515287      0.223910     -0.223910
3
Coordinates from ORCA-job input_MEP E -93.187365956064
  H      -0.576732      0.493014     -0.493014
  C       0.226721     -0.669131      0.669131
  N       0.350011      0.176118     -0.176118
3
Coordinates from ORCA-job input_MEP E -93.208823954532
  H      -0.455695      0.690490     -0.690490
  C       0.480105     -0.727477      0.727477
  N      -0.024410      0.036987     -0.036987
