3
Coordinates from ORCA-job input_MEP E  -5.501475248750
  H      -1.113911      0.000000     -0.000000
  C      -0.026666     -0.000000      0.000000
  N       1.140576      0.000000     -0.000000
3
Coordinates from ORCA-job input_MEP E  -5.448396404320
  H      -0.876537      0.150567     -0.150566
  C      -0.052250     -0.290815      0.290813
  N       0.928787      0.140248     -0.140247
3
Coordinates from ORCA-job input_MEP E  -5.403983366090
  H      -0.741780      0.200097     -0.200096
  C      -0.059420     -0.386722      0.386720
  N       0.801200      0.186625     -0.186624
3
Coordinates from ORCA-job input_MEP E  -5.390814092570
  H      -0.682581      0.224794     -0.224793
  C      -0.054666     -0.428760      0.428758
  N       0.737246      0.203966     -0.203965
3
Coordinates from ORCA-job input_MEP E  -5.387373562750
  H      -0.636339      0.246320     -0.246319
  C      -0.045932     -0.461593      0.461590
  N       0.682271      0.215272     -0.215271
3
Coordinates from ORCA-job input_MEP E  -5.391576184730
  H      -0.580783      0.279605     -0.279603
  C      -0.024530     -0.504340      0.504337
  N       0.605313      0.224735     -0.224734
3
Coordinates from ORCA-job input_MEP E  -5.403254790110
  H      -0.543054      0.342014     -0.342012
  C       0.029243     -0.562908      0.562904
  N       0.513811      0.220894     -0.220892
3
Coordinates from ORCA-job input_MEP E  -5.436238478980
  H      -0.531046      0.489204     -0.489201
  C       0.178553     -0.659654      0.659650
  N       0.352493      0.170450     -0.170449
3
Coordinates from ORCA-job input_MEP E  -5.470605065820
  H      -0.412640      0.703137     -0.703133
  C       0.434727     -0.740773      0.740769
  N      -0.022087      0.037636     -0.037636
