3
Coordinates from ORCA-job input_MEP E -93.234931842405
  H      -1.115578      0.000000     -0.000000
  C      -0.025918     -0.000000      0.000000
  N       1.141496      0.000000     -0.000000
3
Coordinates from ORCA-job input_MEP E -93.190205440982
  H      -0.901348      0.161639     -0.161639
  C      -0.039103     -0.312512      0.312512
  N       0.940451      0.150873     -0.150873
3
Coordinates from ORCA-job input_MEP E -93.164472109938
  H      -0.767107      0.214396     -0.214396
  C      -0.031091     -0.409232      0.409232
  N       0.798198      0.194836     -0.194836
3
Coordinates from ORCA-job input_MEP E -93.158445338898
  H      -0.709389      0.237339     -0.237338
  C      -0.021918     -0.447216      0.447216
  N       0.731307      0.209877     -0.209877
3
Coordinates from ORCA-job input_MEP E -93.157622796219
  H      -0.670182      0.256090     -0.256090
  C      -0.011181     -0.475144      0.475144
  N       0.681363      0.219055     -0.219055
3
Coordinates from ORCA-job input_MEP E -93.160646528653
  H      -0.621162      0.285503     -0.285503
  C       0.011220     -0.512712      0.512712
  N       0.609941      0.227209     -0.227209
3
Coordinates from ORCA-job input_MEP E -93.168047143114
  H      -0.582569      0.347843     -0.347843
  C       0.070493     -0.571403      0.571403
  N       0.512076      0.223560     -0.223560
3
Coordinates from ORCA-job input_MEP E -93.187373358876
  H      -0.574622      0.493811     -0.493811
  C       0.224921     -0.668843      0.668843
  N       0.349701      0.175031     -0.175031
3
Coordinates from ORCA-job input_MEP E -93.208823954532
  H      -0.453690      0.691160     -0.691160
  C       0.477992     -0.728183      0.728183
  N      -0.024303      0.037023     -0.037023
