7
Coordinates from ORCA-job 1 E -10.347576218590
  C          -4.28077697224294      1.47871601865575      0.03045174411079
  C          -3.08507755583733      0.91602322525596      0.05091292077070
  H          -2.22661511725826      1.42058551916039      0.46414917552731
  H          -3.79321601785613      3.12471776837676      0.86147173043334
  H          -2.92758822242805     -0.06796351867509     -0.34551252698409
  O          -4.58766983335096      2.70918165810287      0.50159616435084
  H          -5.15386628002631      0.99145932912336     -0.37845920920890
